Circuit: * C:\Users\34608\Documents\Ingeniería Informática\4o AÑO\1er Cuatri\CIREL\PRÁCTICAS\Práctica1\Draft3.asc


Date: Tue Oct 27 18:30:43 2020
Total elapsed time: 0.036 seconds.

tnom = 27
temp = 27
method = trap
totiter = 0
traniter = 0
tranpoints = 0
accept = 0
rejected = 0
matrix size = 3
fillins = 0
solver = Normal

