Circuit: * C:\Users\34608\Documents\Ingeniería Informática\4o AÑO\1er Cuatri\CIREL\PRÁCTICAS\Práctica1\Draft4.asc

Direct Newton iteration for .op point succeeded.

Date: Tue Oct 27 19:09:48 2020
Total elapsed time: 0.082 seconds.

tnom = 27
temp = 27
method = trap
totiter = 3
traniter = 0
tranpoints = 0
accept = 0
rejected = 0
matrix size = 9
fillins = 1
solver = Normal
Matrix Compiler1:      26 opcodes
Matrix Compiler2: 765 bytes object code size
