Circuit: * C:\Users\34608\Documents\Ingeniería Informática\4o AÑO\1er Cuatri\CIREL\PRÁCTICAS\Práctica1\Draft1.asc

Direct Newton iteration for .op point succeeded.

Date: Mon Oct 05 12:48:08 2020
Total elapsed time: 0.231 seconds.

tnom = 27
temp = 27
method = trap
totiter = 3
traniter = 0
tranpoints = 0
accept = 0
rejected = 0
matrix size = 3
fillins = 0
solver = Normal
Matrix Compiler1: 50 bytes object code size
Matrix Compiler2: 175 bytes object code size
