Circuit: * C:\Users\34608\Documents\Ingeniería Informática\4o AÑO\1er Cuatri\CIREL\PRÁCTICAS\Práctica1\Draft2.asc


Date: Tue Oct 20 00:28:43 2020
Total elapsed time: 0.024 seconds.

tnom = 27
temp = 27
method = trap
totiter = 0
traniter = 0
tranpoints = 0
accept = 0
rejected = 0
matrix size = 5
fillins = 2
solver = Normal

