Circuit: * C:\Users\34608\Documents\Ingeniería Informática\4o AÑO\1er Cuatri\CIREL\PRÁCTICAS\Práctica1\práctica1_tutorial.asc

Direct Newton iteration for .op point succeeded.

Date: Sat Sep 26 12:24:44 2020
Total elapsed time: 0.056 seconds.

tnom = 27
temp = 27
method = modified trap
totiter = 3245
traniter = 3240
tranpoints = 1621
accept = 1621
rejected = 0
matrix size = 11
fillins = 1
solver = Normal
Matrix Compiler1: 360 bytes object code size  0.1/0.1/[0.1]
Matrix Compiler2: off  [0.1]/0.1/0.1

